Example, example example.

New line.

Anotha one.