Example, example example.

New line.

Anotha one.

More changes.

More.